data_image0
_chemical_formula_structural       H8C2N4O2
_chemical_formula_sum              "H8 C2 N4 O2"
_cell_length_a       5.576
_cell_length_b       5.576
_cell_length_c       4.692
_cell_angle_alpha    90
_cell_angle_beta     90
_cell_angle_gamma    90

_space_group_name_H-M_alt    "P 1"
_space_group_IT_number       1

loop_
  _space_group_symop_operation_xyz
  'x, y, z'

loop_
  _atom_site_type_symbol
  _atom_site_label
  _atom_site_symmetry_multiplicity
  _atom_site_fract_x
  _atom_site_fract_y
  _atom_site_fract_z
  _atom_site_occupancy
  H   H1        1.0  0.25610  0.75610  0.28550  1.0000
  H   H2        1.0  0.24390  0.25610  0.71450  1.0000
  H   H3        1.0  0.74390  0.24390  0.28550  1.0000
  H   H4        1.0  0.75610  0.74390  0.71450  1.0000
  H   H5        1.0  0.14290  0.64290  0.96300  1.0000
  H   H6        1.0  0.35710  0.14290  0.03700  1.0000
  H   H7        1.0  0.85710  0.35710  0.96300  1.0000
  H   H8        1.0  0.64290  0.85710  0.03700  1.0000
  C   C1        1.0  0.00000  0.50000  0.32900  1.0000
  C   C2        1.0  0.50000  0.00000  0.67100  1.0000
  N   N1        1.0  0.14550  0.64550  0.17910  1.0000
  N   N2        1.0  0.35450  0.14550  0.82090  1.0000
  N   N3        1.0  0.85450  0.35450  0.17910  1.0000
  N   N4        1.0  0.64550  0.85450  0.82090  1.0000
  O   O1        1.0  0.00000  0.50000  0.59700  1.0000
  O   O2        1.0  0.50000  0.00000  0.40300  1.0000
