data_image0
_chemical_formula_structural       H8C2N4O2
_chemical_formula_sum              "H8 C2 N4 O2"
_cell_length_a       5.661
_cell_length_b       5.661
_cell_length_c       4.712
_cell_angle_alpha    90
_cell_angle_beta     90
_cell_angle_gamma    90

_space_group_name_H-M_alt    "P 1"
_space_group_IT_number       1

loop_
  _space_group_symop_operation_xyz
  'x, y, z'

loop_
  _atom_site_type_symbol
  _atom_site_label
  _atom_site_symmetry_multiplicity
  _atom_site_fract_x
  _atom_site_fract_y
  _atom_site_fract_z
  _atom_site_occupancy
  H   H1        1.0  0.25220  0.75220  0.28390  1.0000
  H   H2        1.0  0.24780  0.25220  0.71610  1.0000
  H   H3        1.0  0.74780  0.24780  0.28390  1.0000
  H   H4        1.0  0.75220  0.74780  0.71610  1.0000
  H   H5        1.0  0.13650  0.63650  0.97240  1.0000
  H   H6        1.0  0.36350  0.13650  0.02760  1.0000
  H   H7        1.0  0.86350  0.36350  0.97240  1.0000
  H   H8        1.0  0.63650  0.86350  0.02760  1.0000
  C   C1        1.0  0.00000  0.50000  0.33300  1.0000
  C   C2        1.0  0.50000  0.00000  0.66700  1.0000
  N   N1        1.0  0.14390  0.64390  0.18320  1.0000
  N   N2        1.0  0.35610  0.14390  0.81680  1.0000
  N   N3        1.0  0.85610  0.35610  0.18320  1.0000
  N   N4        1.0  0.64390  0.85610  0.81680  1.0000
  O   O1        1.0  0.00000  0.50000  0.59680  1.0000
  O   O2        1.0  0.50000  0.00000  0.40320  1.0000
