data_image0
_chemical_formula_structural       H46C38N2O2
_chemical_formula_sum              "H46 C38 N2 O2"
_cell_length_a       11.657
_cell_length_b       5.3217
_cell_length_c       13.483
_cell_angle_alpha    90
_cell_angle_beta     107.81
_cell_angle_gamma    90

_space_group_name_H-M_alt    "P 1"
_space_group_IT_number       1

loop_
  _space_group_symop_operation_xyz
  'x, y, z'

loop_
  _atom_site_type_symbol
  _atom_site_label
  _atom_site_symmetry_multiplicity
  _atom_site_fract_x
  _atom_site_fract_y
  _atom_site_fract_z
  _atom_site_occupancy
  H   H1        1.0  0.48700  0.70400  0.48000  1.0000
  H   H2        1.0  0.51300  0.20400  0.52000  1.0000
  H   H3        1.0  0.75490  0.62950  0.38930  1.0000
  H   H4        1.0  0.24510  0.12950  0.61070  1.0000
  H   H5        1.0  0.62300  0.88190  0.43510  1.0000
  H   H6        1.0  0.37700  0.38190  0.56490  1.0000
  H   H7        1.0  0.67460  0.67210  0.62960  1.0000
  H   H8        1.0  0.32540  0.17210  0.37040  1.0000
  H   H9        1.0  0.75100  0.89140  0.59690  1.0000
  H   H10       1.0  0.24900  0.39140  0.40310  1.0000
  H   H11       1.0  0.88660  0.62200  0.56790  1.0000
  H   H12       1.0  0.11340  0.12200  0.43210  1.0000
  H   H13       1.0  0.55510  0.29000  0.33670  1.0000
  H   H14       1.0  0.44490  0.79000  0.66330  1.0000
  H   H15       1.0  0.66330  0.28660  0.28660  1.0000
  H   H16       1.0  0.33670  0.78660  0.71340  1.0000
  H   H17       1.0  0.38190  0.51240  0.24670  1.0000
  H   H18       1.0  0.61810  0.01240  0.75330  1.0000
  H   H19       1.0  0.27660  0.80560  0.12250  1.0000
  H   H20       1.0  0.72340  0.30560  0.87750  1.0000
  H   H21       1.0  0.38070  0.05770  0.03680  1.0000
  H   H22       1.0  0.61930  0.55770  0.96320  1.0000
  H   H23       1.0  0.58490  0.00100  0.07070  1.0000
  H   H24       1.0  0.41510  0.50100  0.92930  1.0000
  H   H25       1.0  0.68990  0.71330  0.19430  1.0000
  H   H26       1.0  0.31010  0.21330  0.80570  1.0000
  H   H27       1.0  0.80040  0.33330  0.71200  1.0000
  H   H28       1.0  0.19960  0.83330  0.28800  1.0000
  H   H29       1.0  0.91810  0.25120  0.68210  1.0000
  H   H30       1.0  0.08190  0.75120  0.31790  1.0000
  H   H31       1.0  0.10170  0.49070  0.74810  1.0000
  H   H32       1.0  0.89830  0.99070  0.25190  1.0000
  H   H33       1.0  0.21950  0.79070  0.86440  1.0000
  H   H34       1.0  0.78050  0.29070  0.13560  1.0000
  H   H35       1.0  0.12580  0.05140  0.95550  1.0000
  H   H36       1.0  0.87420  0.55140  0.04450  1.0000
  H   H37       1.0  0.92470  0.01960  0.93220  1.0000
  H   H38       1.0  0.07530  0.51960  0.06780  1.0000
  H   H39       1.0  0.80840  0.72020  0.81860  1.0000
  H   H40       1.0  0.19160  0.22020  0.18140  1.0000
  H   H41       1.0  0.89710  0.10730  0.52420  1.0000
  H   H42       1.0  0.10290  0.60730  0.47580  1.0000
  H   H43       1.0  0.90610  0.32570  0.44540  1.0000
  H   H44       1.0  0.09390  0.82570  0.55460  1.0000
  H   H45       1.0  0.81020  0.10370  0.40660  1.0000
  H   H46       1.0  0.18980  0.60370  0.59340  1.0000
  C   C1        1.0  0.69430  0.53040  0.41180  1.0000
  C   C2        1.0  0.30570  0.03040  0.58820  1.0000
  C   C3        1.0  0.63230  0.71140  0.46780  1.0000
  C   C4        1.0  0.36770  0.21140  0.53220  1.0000
  C   C5        1.0  0.71770  0.72020  0.57950  1.0000
  C   C6        1.0  0.28230  0.22020  0.42050  1.0000
  C   C7        1.0  0.81900  0.53150  0.58350  1.0000
  C   C8        1.0  0.18100  0.03150  0.41650  1.0000
  C   C9        1.0  0.61360  0.39690  0.31620  1.0000
  C   C10       1.0  0.38640  0.89690  0.68380  1.0000
  C   C11       1.0  0.54560  0.58550  0.23360  1.0000
  C   C12       1.0  0.45440  0.08550  0.76640  1.0000
  C   C13       1.0  0.42430  0.61320  0.21140  1.0000
  C   C14       1.0  0.57570  0.11320  0.78860  1.0000
  C   C15       1.0  0.36130  0.78820  0.13740  1.0000
  C   C16       1.0  0.63870  0.28820  0.86260  1.0000
  C   C17       1.0  0.42240  0.93550  0.08610  1.0000
  C   C18       1.0  0.57760  0.43550  0.91390  1.0000
  C   C19       1.0  0.54270  0.90330  0.10710  1.0000
  C   C20       1.0  0.45730  0.40330  0.89290  1.0000
  C   C21       1.0  0.60540  0.73130  0.18040  1.0000
  C   C22       1.0  0.39460  0.23130  0.81960  1.0000
  C   C23       1.0  0.86820  0.39660  0.68920  1.0000
  C   C24       1.0  0.13180  0.89660  0.31080  1.0000
  C   C25       1.0  0.94380  0.57850  0.76990  1.0000
  C   C26       1.0  0.05620  0.07850  0.23010  1.0000
  C   C27       1.0  0.06450  0.59900  0.78520  1.0000
  C   C28       1.0  0.93550  0.09900  0.21480  1.0000
  C   C29       1.0  0.13550  0.77690  0.85470  1.0000
  C   C30       1.0  0.86450  0.27690  0.14530  1.0000
  C   C31       1.0  0.07960  0.93020  0.90820  1.0000
  C   C32       1.0  0.92040  0.43020  0.09180  1.0000
  C   C33       1.0  0.96150  0.91130  0.89480  1.0000
  C   C34       1.0  0.03850  0.41130  0.10520  1.0000
  C   C35       1.0  0.89190  0.73420  0.82650  1.0000
  C   C36       1.0  0.10810  0.23420  0.17350  1.0000
  C   C37       1.0  0.85120  0.21170  0.46570  1.0000
  C   C38       1.0  0.14880  0.71170  0.53430  1.0000
  N   N1        1.0  0.76200  0.35800  0.49670  1.0000
  N   N2        1.0  0.23800  0.85800  0.50330  1.0000
  O   O1        1.0  0.51860  0.60850  0.46280  1.0000
  O   O2        1.0  0.48140  0.10850  0.53720  1.0000
