data_image0
_chemical_formula_structural       H54C32N2O6
_chemical_formula_sum              "H54 C32 N2 O6"
_cell_length_a       9.3539
_cell_length_b       9.4338
_cell_length_c       10.2406
_cell_angle_alpha    91.805
_cell_angle_beta     104.889
_cell_angle_gamma    109.986

_space_group_name_H-M_alt    "P 1"
_space_group_IT_number       1

loop_
  _space_group_symop_operation_xyz
  'x, y, z'

loop_
  _atom_site_type_symbol
  _atom_site_label
  _atom_site_symmetry_multiplicity
  _atom_site_fract_x
  _atom_site_fract_y
  _atom_site_fract_z
  _atom_site_occupancy
  H   H1        1.0  0.33900  0.89800  0.93300  1.0000
  H   H2        1.0  0.66100  0.10200  0.06700  1.0000
  H   H3        1.0  0.99700  0.59700  0.68700  1.0000
  H   H4        1.0  0.00300  0.40300  0.31300  1.0000
  H   H5        1.0  0.04600  0.63200  0.02300  1.0000
  H   H6        1.0  0.95400  0.36800  0.97700  1.0000
  H   H7        1.0  0.99300  0.77200  0.05400  1.0000
  H   H8        1.0  0.00700  0.22800  0.94600  1.0000
  H   H9        1.0  0.16000  0.80800  0.03700  1.0000
  H   H10       1.0  0.84000  0.19200  0.96300  1.0000
  H   H11       1.0  0.91900  0.87400  0.72500  1.0000
  H   H12       1.0  0.08100  0.12600  0.27500  1.0000
  H   H13       1.0  0.12000  0.98500  0.85700  1.0000
  H   H14       1.0  0.88000  0.01500  0.14300  1.0000
  H   H15       1.0  0.92400  0.93100  0.86400  1.0000
  H   H16       1.0  0.07600  0.06900  0.13600  1.0000
  H   H17       1.0  0.75700  0.63300  0.71200  1.0000
  H   H18       1.0  0.24300  0.36700  0.28800  1.0000
  H   H19       1.0  0.74800  0.66700  0.86100  1.0000
  H   H20       1.0  0.25200  0.33300  0.13900  1.0000
  H   H21       1.0  0.79500  0.51800  0.81200  1.0000
  H   H22       1.0  0.20500  0.48200  0.18800  1.0000
  H   H23       1.0  0.37300  0.91500  0.56900  1.0000
  H   H24       1.0  0.62700  0.08500  0.43100  1.0000
  H   H25       1.0  0.18500  0.86300  0.55000  1.0000
  H   H26       1.0  0.81500  0.13700  0.45000  1.0000
  H   H27       1.0  0.24000  0.94100  0.34600  1.0000
  H   H28       1.0  0.76000  0.05900  0.65400  1.0000
  H   H29       1.0  0.12200  0.76400  0.31200  1.0000
  H   H30       1.0  0.87800  0.23600  0.68800  1.0000
  H   H31       1.0  0.31700  0.81000  0.33500  1.0000
  H   H32       1.0  0.68300  0.19000  0.66500  1.0000
  H   H33       1.0  0.15700  0.44000  0.64400  1.0000
  H   H34       1.0  0.84300  0.56000  0.35600  1.0000
  H   H35       1.0  0.32300  0.46200  0.50700  1.0000
  H   H36       1.0  0.67700  0.53800  0.49300  1.0000
  H   H37       1.0  0.47900  0.51000  0.63700  1.0000
  H   H38       1.0  0.52100  0.49000  0.36300  1.0000
  H   H39       1.0  0.21800  0.20900  0.55500  1.0000
  H   H40       1.0  0.78200  0.79100  0.44500  1.0000
  H   H41       1.0  0.39000  0.24200  0.54700  1.0000
  H   H42       1.0  0.61000  0.75800  0.45300  1.0000
  H   H43       1.0  0.50300  0.30100  0.79400  1.0000
  H   H44       1.0  0.49700  0.69900  0.20600  1.0000
  H   H45       1.0  0.35900  0.12900  0.74600  1.0000
  H   H46       1.0  0.64100  0.87100  0.25400  1.0000
  H   H47       1.0  0.33000  0.27400  0.92900  1.0000
  H   H48       1.0  0.67000  0.72600  0.07100  1.0000
  H   H49       1.0  0.17600  0.22500  0.79300  1.0000
  H   H50       1.0  0.82400  0.77500  0.20700  1.0000
  H   H51       1.0  0.43900  0.52400  0.87200  1.0000
  H   H52       1.0  0.56100  0.47600  0.12800  1.0000
  H   H53       1.0  0.25900  0.49000  0.88700  1.0000
  H   H54       1.0  0.74100  0.51000  0.11300  1.0000
  C   C1        1.0  0.48420  0.85510  0.84484  1.0000
  C   C2        1.0  0.51580  0.14490  0.15516  1.0000
  C   C3        1.0  0.29300  0.66320  0.68140  1.0000
  C   C4        1.0  0.70700  0.33680  0.31860  1.0000
  C   C5        1.0  0.21600  0.72540  0.77281  1.0000
  C   C6        1.0  0.78400  0.27460  0.22719  1.0000
  C   C7        1.0  0.06200  0.67650  0.76104  1.0000
  C   C8        1.0  0.93800  0.32350  0.23896  1.0000
  C   C9        1.0  0.97630  0.73210  0.84691  1.0000
  C   C10       1.0  0.02370  0.26790  0.15309  1.0000
  C   C11       1.0  0.04900  0.73450  0.99950  1.0000
  C   C12       1.0  0.95100  0.26550  0.00050  1.0000
  C   C13       1.0  0.98840  0.89480  0.82080  1.0000
  C   C14       1.0  0.01160  0.10520  0.17920  1.0000
  C   C15       1.0  0.80440  0.62410  0.80940  1.0000
  C   C16       1.0  0.19560  0.37590  0.19060  1.0000
  C   C17       1.0  0.25950  0.83520  0.51690  1.0000
  C   C18       1.0  0.74050  0.16480  0.48310  1.0000
  C   C19       1.0  0.23170  0.83580  0.36690  1.0000
  C   C20       1.0  0.76830  0.16420  0.63310  1.0000
  C   C21       1.0  0.27040  0.49610  0.68637  1.0000
  C   C22       1.0  0.72960  0.50390  0.31363  1.0000
  C   C23       1.0  0.35800  0.44390  0.59840  1.0000
  C   C24       1.0  0.64200  0.55610  0.40160  1.0000
  C   C25       1.0  0.33390  0.27610  0.60170  1.0000
  C   C26       1.0  0.66610  0.72390  0.39830  1.0000
  C   C27       1.0  0.38480  0.24200  0.74690  1.0000
  C   C28       1.0  0.61520  0.75800  0.25310  1.0000
  C   C29       1.0  0.29600  0.29250  0.83330  1.0000
  C   C30       1.0  0.70400  0.70750  0.16670  1.0000
  C   C31       1.0  0.32150  0.46060  0.83160  1.0000
  C   C32       1.0  0.67850  0.53940  0.16840  1.0000
  N   N1        1.0  0.34237  0.83852  0.86680  1.0000
  N   N2        1.0  0.65763  0.16148  0.13320  1.0000
  O   O1        1.0  0.61471  0.94440  0.90865  1.0000
  O   O2        1.0  0.38529  0.05560  0.09135  1.0000
  O   O3        1.0  0.46223  0.75550  0.73826  1.0000
  O   O4        1.0  0.53777  0.24450  0.26174  1.0000
  O   O5        1.0  0.24494  0.68277  0.54449  1.0000
  O   O6        1.0  0.75506  0.31723  0.45551  1.0000
